
  EPA STORM WATER MANAGEMENT MODEL - VERSION 5.2 (Build 5.2.0)
  ------------------------------------------------------------

  
  ****************
  Analysis Options
  ****************
  Flow Units ............... CFS
  Process Models:
    Rainfall/Runoff ........ YES
    RDII ................... NO
    Snowmelt ............... NO
    Groundwater ............ NO
    Flow Routing ........... YES
    Ponding Allowed ........ YES
    Water Quality .......... NO
  Infiltration Method ...... HORTON
  Flow Routing Method ...... DYNWAVE
  Surcharge Method ......... EXTRAN
  Starting Date ............ 12/15/2017 00:00:00
  Ending Date .............. 12/15/2017 06:00:00
  Antecedent Dry Days ...... 0.0
  Report Time Step ......... 00:01:00
  Wet Time Step ............ 00:01:00
  Dry Time Step ............ 06:00:00
  Routing Time Step ........ 30.00 sec
  Variable Time Step ....... YES
  Maximum Trials ........... 8
  Number of Threads ........ 1
  Head Tolerance ........... 0.001500 ft
  
  
  **************************        Volume         Depth
  Runoff Quantity Continuity     acre-feet        inches
  **************************     ---------       -------
  Total Precipitation ......       610.051        14.906
  Evaporation Loss .........         0.000         0.000
  Infiltration Loss ........       108.535         2.652
  Surface Runoff ...........       444.513        10.861
  Final Storage ............        57.126         1.396
  Continuity Error (%) .....        -0.020
  
  
  **************************        Volume        Volume
  Flow Routing Continuity        acre-feet      10^6 gal
  **************************     ---------     ---------
  Dry Weather Inflow .......         0.000         0.000
  Wet Weather Inflow .......       444.893       144.975
  Groundwater Inflow .......         0.000         0.000
  RDII Inflow ..............         0.000         0.000
  External Inflow ..........         0.000         0.000
  External Outflow .........        62.046        20.219
  Flooding Loss ............         0.000         0.000
  Evaporation Loss .........         0.000         0.000
  Exfiltration Loss ........         0.000         0.000
  Initial Stored Volume ....         0.000         0.000
  Final Stored Volume ......       382.542       124.657
  Continuity Error (%) .....         0.068
  
  
  *************************
  Highest Continuity Errors
  *************************
  Node 144 (2.07%)
  Node 180 (1.44%)
  
  
  ***************************
  Time-Step Critical Elements
  ***************************
  Link 161 (13.22%)
  Link 223 (7.05%)
  Link 158 (6.70%)
  Link 342 (2.29%)
  Link 284 (2.03%)
  
  
  ********************************
  Highest Flow Instability Indexes
  ********************************
  Link 343 (36)
  Link 310 (18)
  Link 313 (18)
  Link 28 (16)
  Link 314 (12)
  
  
  *********************************
  Most Frequent Nonconverging Nodes
  *********************************
  Node 347 (40.35%)
  Node 8 (6.96%)
  Node 9 (6.87%)
  Node 175 (6.52%)
  Node 232 (6.34%)
  
  
  *************************
  Routing Time Step Summary
  *************************
  Minimum Time Step           :     0.50 sec
  Average Time Step           :    18.98 sec
  Maximum Time Step           :    30.00 sec
  % of Time in Steady State   :     0.28
  Average Iterations per Step :     6.03
  % of Steps Not Converging   :    40.35
  Time Step Frequencies       :
     30.000 - 13.228 sec      :    57.50 %
     13.228 -  5.833 sec      :    11.11 %
      5.833 -  2.572 sec      :    20.81 %
      2.572 -  1.134 sec      :     9.44 %
      1.134 -  0.500 sec      :     1.15 %
  
  
  ***************************
  Subcatchment Runoff Summary
  ***************************
  
  ------------------------------------------------------------------------------------------------------------------------------
                            Total      Total      Total      Total     Imperv       Perv      Total       Total     Peak  Runoff
                           Precip      Runon       Evap      Infil     Runoff     Runoff     Runoff      Runoff   Runoff   Coeff
  Subcatchment                 in         in         in         in         in         in         in    10^6 gal      CFS
  ------------------------------------------------------------------------------------------------------------------------------
  532                       14.91       0.00       0.00       2.41      11.02       0.13      11.15        0.63    42.58   0.748
  533                       14.91       0.00       0.00       2.41      11.02       0.13      11.15        0.44    29.89   0.748
  534                       14.91       0.00       0.00       2.41      11.02       0.13      11.15        0.50    33.58   0.748
  535                       14.91       0.00       0.00       2.41      11.02       0.13      11.15        0.61    40.95   0.748
  536                       14.91       0.00       0.00       2.41      11.02       0.13      11.15        0.57    38.69   0.748
  537                       14.91       0.00       0.00       2.41      11.02       0.13      11.15        0.56    37.67   0.748
  538                       14.91       0.00       0.00       2.41      11.02       0.13      11.15        0.54    36.44   0.748
  539                       14.91       0.00       0.00       2.41      11.02       0.13      11.15        0.52    35.42   0.748
  540                       14.91       0.00       0.00       2.41      11.02       0.13      11.15        0.97    65.51   0.748
  541                       14.91       0.00       0.00       2.41      11.02       0.13      11.15        0.94    63.26   0.748
  542                       14.91       0.00       0.00       2.41      11.02       0.13      11.15        0.46    31.12   0.748
  543                       14.91       0.00       0.00       2.41      11.02       0.13      11.15        0.77    51.80   0.748
  544                       14.91       0.00       0.00       2.41      11.02       0.13      11.15        1.76   118.74   0.748
  545                       14.91       0.00       0.00       2.41      11.02       0.13      11.15        0.71    48.11   0.748
  546                       14.91       0.00       0.00       2.41      11.02       0.13      11.15        0.70    47.29   0.748
  547                       14.91       0.00       0.00       2.41      11.02       0.13      11.15        0.61    41.56   0.748
  548                       14.91       0.00       0.00       2.41      11.02       0.13      11.15        0.50    33.58   0.748
  549                       14.91       0.00       0.00       2.41      11.02       0.13      11.15        0.70    47.29   0.748
  550                       14.91       0.00       0.00       2.41      11.02       0.13      11.15        0.71    48.11   0.748
  551                       14.91       0.00       0.00       2.41      11.02       0.13      11.15        0.35    23.34   0.748
  552                       14.91       0.00       0.00       2.41      11.02       0.13      11.15        0.36    24.16   0.748
  553                       14.91       0.00       0.00       2.41      11.02       0.13      11.15        0.35    23.54   0.748
  554                       14.91       0.00       0.00       2.41      11.02       0.13      11.15        0.35    23.54   0.748
  555                       14.91       0.00       0.00       2.41      11.02       0.13      11.15        0.35    23.54   0.748
  556                       14.91       0.00       0.00       2.41      11.02       0.13      11.15        0.35    23.54   0.748
  557                       14.91       0.00       0.00       2.41      11.02       0.13      11.15        0.35    23.54   0.748
  558                       14.91       0.00       0.00       2.41      11.02       0.13      11.15        0.69    46.68   0.748
  559                       14.91       0.00       0.00       2.41      11.02       0.13      11.15        0.36    24.57   0.748
  560                       14.91       0.00       0.00       2.41      11.02       0.13      11.15        0.66    44.63   0.748
  561                       14.91       0.00       0.00       2.41      11.02       0.13      11.15        0.70    47.29   0.748
  562                       14.91       0.00       0.00       2.41      11.02       0.13      11.15        0.60    40.54   0.748
  563                       14.91       0.00       0.00       2.41      11.02       0.13      11.15        1.09    73.91   0.748
  564                       14.91       0.00       0.00       2.41      11.02       0.13      11.15        1.02    68.79   0.748
  565                       14.91       0.00       0.00       2.41      11.02       0.13      11.15        0.98    66.13   0.748
  566                       14.91       0.00       0.00       2.41      11.02       0.13      11.15        0.86    58.35   0.748
  567                       14.91       0.00       0.00       2.41      11.02       0.13      11.15        0.77    52.21   0.748
  568                       14.91       0.00       0.00       2.41      11.02       0.13      11.15        0.70    47.50   0.748
  569                       14.91       0.00       0.00       2.41      11.02       0.13      11.15        0.71    47.91   0.748
  570                       14.91       0.00       0.00       2.41      11.02       0.13      11.15        0.61    41.36   0.748
  571                       14.91       0.00       0.00       2.41      11.02       0.13      11.15        1.07    72.68   0.748
  572                       14.91       0.00       0.00       2.41      11.02       0.13      11.15        0.50    33.58   0.748
  573                       14.91       0.00       0.00       2.41      11.02       0.13      11.15        0.49    33.17   0.748
  574                       14.91       0.00       0.00       2.41      11.02       0.13      11.15        0.47    31.53   0.748
  575                       14.91       0.00       0.00       2.41      11.02       0.13      11.15        0.44    29.69   0.748
  576                       14.91       0.00       0.00       2.41      11.02       0.13      11.15        0.42    28.25   0.748
  577                       14.91       0.00       0.00       2.41      11.02       0.13      11.15        0.40    26.82   0.748
  578                       14.91       0.00       0.00       2.41      11.02       0.13      11.15        0.39    26.21   0.748
  579                       14.91       0.00       0.00       2.41      11.02       0.13      11.15        0.73    49.34   0.748
  580                       14.91       0.00       0.00       2.41      11.02       0.13      11.15        0.34    22.73   0.748
  581                       14.91       0.00       0.00       2.41      11.02       0.13      11.15        0.60    40.33   0.748
  582                       14.91       0.00       0.00       2.41      11.02       0.13      11.15        0.54    36.44   0.748
  583                       14.91       0.00       0.00       2.41      11.02       0.13      11.15        0.92    62.44   0.748
  584                       14.91       0.00       0.00       2.41      11.02       0.13      11.15        0.90    60.81   0.748
  585                       14.91       0.00       0.00       2.41      11.02       0.13      11.15        0.80    54.05   0.748
  586                       14.91       0.00       0.00       2.41      11.02       0.13      11.15        0.58    39.10   0.748
  587                       14.91       0.00       0.00       2.41      11.02       0.13      11.15        0.56    37.88   0.748
  588                       14.91       0.00       0.00       2.41      11.02       0.13      11.15        0.58    38.90   0.748
  589                       14.91       0.00       0.00       2.41      11.02       0.13      11.15        0.57    38.49   0.748
  590                       14.91       0.00       0.00       2.41      11.02       0.13      11.15        0.56    38.08   0.748
  591                       14.91       0.00       0.00       2.41      11.02       0.13      11.15        0.58    39.10   0.748
  592                       14.91       0.00       0.00       2.41      11.02       0.13      11.15        0.58    39.31   0.748
  593                       14.91       0.00       0.00       2.41      11.02       0.13      11.15        0.61    40.95   0.748
  594                       14.91       0.00       0.00       2.41      11.02       0.13      11.15        0.59    39.92   0.748
  595                       14.91       0.00       0.00       2.41      11.02       0.13      11.15        0.61    40.95   0.748
  596                       14.91       0.00       0.00       2.41      11.02       0.13      11.15        0.60    40.54   0.748
  597                       14.91       0.00       0.00       2.41      11.02       0.13      11.15        0.60    40.74   0.748
  598                       14.91       0.00       0.00       2.41      11.02       0.13      11.15        0.62    41.77   0.748
  599                       14.91       0.00       0.00       2.41      11.02       0.13      11.15        0.63    42.79   0.748
  600                       14.91       0.00       0.00       2.41      11.02       0.13      11.15        0.62    41.97   0.748
  601                       14.91       0.00       0.00       2.41      11.02       0.13      11.15        0.64    43.40   0.748
  602                       14.91       0.00       0.00       2.41      11.02       0.13      11.15        0.63    42.58   0.748
  603                       14.91       0.00       0.00       2.41      11.02       0.13      11.15        0.65    43.81   0.748
  604                       14.91       0.00       0.00       2.41      11.02       0.13      11.15        0.67    45.45   0.748
  605                       14.91       0.00       0.00       2.41      11.02       0.13      11.15        0.61    41.36   0.748
  606                       14.91       0.00       0.00       2.41      11.02       0.13      11.15        0.64    43.20   0.748
  607                       14.91       0.00       0.00       2.41      11.02       0.13      11.15        0.65    43.81   0.748
  608                       14.91       0.00       0.00       2.41      11.02       0.13      11.15        0.83    56.30   0.748
  609                       14.91       0.00       0.00       2.41      11.02       0.13      11.15        0.84    56.92   0.748
  610                       14.91       0.00       0.00       2.41      11.02       0.13      11.15        0.65    44.02   0.748
  611                       14.91       0.00       0.00       2.41      11.02       0.13      11.15        0.65    43.81   0.748
  612                       14.91       0.00       0.00       2.41      11.02       0.13      11.15        0.70    47.29   0.748
  613                       14.91       0.00       0.00       2.41      11.02       0.13      11.15        0.55    37.26   0.748
  614                       14.91       0.00       0.00       2.41      11.02       0.13      11.15        0.88    59.37   0.748
  615                       14.91       0.00       0.00       2.41      11.02       0.13      11.15        1.09    73.70   0.748
  616                       14.91       0.00       0.00       2.41      11.02       0.13      11.15        0.56    37.67   0.748
  617                       14.91       0.00       0.00       2.41      11.02       0.13      11.15        0.54    36.65   0.748
  618                       14.91       0.00       0.00       2.41      11.02       0.13      11.15        0.55    37.06   0.748
  619                       14.91       0.00       0.00       2.41      11.02       0.13      11.15        0.54    36.85   0.748
  620                       14.91       0.00       0.00       2.41      11.02       0.13      11.15        0.54    36.44   0.748
  621                       14.91       0.00       0.00       2.41      11.02       0.13      11.15        0.55    37.26   0.748
  622                       14.91       0.00       0.00       2.41      11.02       0.13      11.15        0.54    36.65   0.748
  623                       14.91       0.00       0.00       2.41      11.02       0.13      11.15        0.55    37.06   0.748
  624                       14.91       0.00       0.00       2.41      11.02       0.13      11.15        0.55    37.26   0.748
  625                       14.91       0.00       0.00       2.41      11.02       0.13      11.15        0.55    37.06   0.748
  626                       14.91       0.00       0.00       2.41      11.02       0.13      11.15        0.54    36.85   0.748
  627                       14.91       0.00       0.00       2.41      11.02       0.13      11.15        0.55    37.06   0.748
  628                       14.91       0.00       0.00       2.41      11.02       0.13      11.15        0.54    36.85   0.748
  629                       14.91       0.00       0.00       2.41      11.02       0.13      11.15        0.56    37.88   0.748
  630                       14.91       0.00       0.00       2.41      11.02       0.13      11.15        0.54    36.24   0.748
  631                       14.91       0.00       0.00       2.41      11.02       0.13      11.15        0.55    37.47   0.748
  632                       14.91       0.00       0.00       2.41      11.02       0.13      11.15        0.54    36.85   0.748
  633                       14.91       0.00       0.00       2.41      11.02       0.13      11.15        0.58    39.51   0.748
  634                       14.91       0.00       0.00       2.41      11.02       0.13      11.15        0.54    36.44   0.748
  635                       14.91       0.00       0.00       2.41      11.02       0.13      11.15        0.54    36.44   0.748
  636                       14.91       0.00       0.00       2.41      11.02       0.13      11.15        0.52    35.21   0.748
  637                       14.91       0.00       0.00       2.41      11.02       0.13      11.15        0.58    39.31   0.748
  638                       14.91       0.00       0.00       2.41      11.02       0.13      11.15        0.87    58.96   0.748
  639                       14.91       0.00       0.00       2.41      11.02       0.13      11.15        0.68    46.27   0.748
  640                       14.91       0.00       0.00       2.41      11.02       0.13      11.15        0.56    37.67   0.748
  641                       14.91       0.00       0.00       2.41      11.02       0.13      11.15        0.95    64.29   0.748
  642                       14.91       0.00       0.00       2.41      11.02       0.13      11.15        0.53    36.03   0.748
  643                       14.91       0.00       0.00       2.41      11.02       0.13      11.15        0.54    36.44   0.748
  644                       14.91       0.00       0.00       2.41      11.02       0.13      11.15        0.54    36.44   0.748
  645                       14.91       0.00       0.00       2.41      11.02       0.13      11.15        0.53    35.62   0.748
  646                       14.91       0.00       0.00       2.41      11.02       0.13      11.15        0.53    35.62   0.748
  647                       14.91       0.00       0.00       2.41      11.02       0.13      11.15        0.53    36.03   0.748
  648                       14.91       0.00       0.00       2.41      11.02       0.13      11.15        0.54    36.24   0.748
  649                       14.91       0.00       0.00       2.41      11.02       0.13      11.15        0.53    35.83   0.748
  650                       14.91       0.00       0.00       2.41      11.02       0.13      11.15        0.52    35.42   0.748
  651                       14.91       0.00       0.00       2.41      11.02       0.13      11.15        0.54    36.24   0.748
  652                       14.91       0.00       0.00       2.41      11.02       0.13      11.15        0.53    35.83   0.748
  653                       14.91       0.00       0.00       2.41      11.02       0.13      11.15        0.53    35.83   0.748
  654                       14.91       0.00       0.00       2.41      11.02       0.13      11.15        0.53    35.83   0.748
  655                       14.91       0.00       0.00       2.41      11.02       0.13      11.15        0.53    35.83   0.748
  656                       14.91       0.00       0.00       2.41      11.02       0.13      11.15        0.53    35.83   0.748
  657                       14.91       0.00       0.00       2.41      11.02       0.13      11.15        0.53    35.83   0.748
  658                       14.91       0.00       0.00       2.41      11.02       0.13      11.15        0.53    35.83   0.748
  659                       14.91       0.00       0.00       2.41      11.02       0.13      11.15        0.53    35.83   0.748
  660                       14.91       0.00       0.00       2.41      11.02       0.13      11.15        0.53    35.83   0.748
  661                       14.91       0.00       0.00       2.41      11.02       0.13      11.15        0.54    36.65   0.748
  662                       14.91       0.00       0.00       2.41      11.02       0.13      11.15        0.81    54.87   0.748
  663                       14.91       0.00       0.00       2.41      11.02       0.13      11.15        0.54    36.65   0.748
  664                       14.91       0.00       0.00       2.41      11.02       0.13      11.15        2.54   171.97   0.748
  665                       14.91       0.00       0.00       2.41      11.02       0.13      11.15        2.30   155.60   0.748
  666                       14.91       0.00       0.00       2.41      11.02       0.13      11.15        1.82   122.84   0.748
  667                       14.91       0.00       0.00       2.41      11.02       0.13      11.15        0.97    65.31   0.748
  668                       14.91       0.00       0.00       2.41      11.02       0.13      11.15        0.79    53.64   0.748
  669                       14.91       0.00       0.00       2.41      11.02       0.13      11.15        0.81    55.07   0.748
  670                       14.91       0.00       0.00       2.41      11.02       0.13      11.15        0.80    53.84   0.748
  671                       14.91       0.00       0.00       2.41      11.02       0.13      11.15        0.80    54.05   0.748
  672                       14.91       0.00       0.00       2.41      11.02       0.13      11.15        1.21    81.89   0.748
  673                       14.91       0.00       0.00       2.41      11.02       0.13      11.15        1.04    70.02   0.748
  674                       14.91       0.00       0.00       2.41      11.02       0.13      11.15        1.51   102.37   0.748
  675                       14.91       0.00       0.00       2.41      11.02       0.13      11.15        1.42    96.22   0.748
  676                       14.91       0.00       0.00       2.41      11.02       0.13      11.15        1.38    93.15   0.748
  677                       14.91       0.00       0.00       2.41      11.02       0.13      11.15        1.21    81.89   0.748
  678                       14.91       0.00       0.00       2.41      11.02       0.13      11.15        1.24    83.94   0.748
  679                       14.91       0.00       0.00       2.41      11.02       0.13      11.15        1.07    72.07   0.748
  680                       14.91       0.00       0.00       2.41      11.02       0.13      11.15        0.45    30.71   0.748
  681                       14.91       0.00       0.00       2.41      11.02       0.13      11.15        0.82    55.28   0.748
  682                       14.91       0.00       0.00       2.41      11.02       0.13      11.15        0.66    44.84   0.748
  683                       14.91       0.00       0.00       2.41      11.02       0.13      11.15        0.67    45.25   0.748
  684                       14.91       0.00       0.00       2.41      11.02       0.13      11.15        1.07    72.48   0.748
  685                       14.91       0.00       0.00       2.41      11.02       0.13      11.15        1.02    69.20   0.748
  686                       14.91       0.00       0.00       2.41      11.02       0.13      11.15        1.29    87.22   0.748
  687                       14.91       0.00       0.00       9.65       2.76       0.23       2.99        1.46    93.24   0.200
  688                       14.91       0.00       0.00       2.41      11.02       0.13      11.15        0.60    40.54   0.748
  689                       14.91       0.00       0.00       2.41      11.02       0.13      11.15        0.57    38.49   0.748
  690                       14.91       0.00       0.00       2.41      11.02       0.13      11.15        1.41    95.41   0.748
  691                       14.91       0.00       0.00       2.41      11.02       0.13      11.15        1.79   121.20   0.748
  692                       14.91       0.00       0.00       2.41      11.02       0.13      11.15        1.00    67.56   0.748
  693                       14.91       0.00       0.00       2.41      11.02       0.13      11.15        1.02    68.99   0.748
  694                       14.91       0.00       0.00       2.41      11.02       0.13      11.15        1.85   124.89   0.748
  695                       14.91       0.00       0.00       2.41      11.02       0.13      11.15        0.41    27.43   0.748
  696                       14.91       0.00       0.00       2.41      11.02       0.13      11.15        0.55    37.26   0.748
  697                       14.91       0.00       0.00       2.41      11.02       0.13      11.15        0.64    43.40   0.748
  698                       14.91       0.00       0.00       2.41      11.02       0.13      11.15        1.12    75.55   0.748
  699                       14.91       0.00       0.00       2.41      11.02       0.13      11.15        0.88    59.37   0.748
  700                       14.91       0.00       0.00       2.41      11.02       0.13      11.15        1.11    74.93   0.748
  701                       14.91       0.00       0.00       2.41      11.02       0.13      11.15        0.83    56.10   0.748
  702                       14.91       0.00       0.00       2.41      11.02       0.13      11.15        0.50    33.78   0.748
  703                       14.91       0.00       0.00       2.41      11.02       0.13      11.15        0.79    53.23   0.748
  704                       14.91       0.00       0.00       2.41      11.02       0.13      11.15        0.82    55.28   0.748
  705                       14.91       0.00       0.00       2.41      11.02       0.13      11.15        0.43    29.07   0.748
  706                       14.91       0.00       0.00       2.41      11.02       0.13      11.15        0.35    23.75   0.748
  707                       14.91       0.00       0.00       2.41      11.02       0.13      11.15        0.72    48.73   0.748
  708                       14.91       0.00       0.00       2.41      11.02       0.13      11.15        0.99    66.74   0.748
  709                       14.91       0.00       0.00       2.41      11.02       0.13      11.15        0.47    31.94   0.748
  710                       14.91       0.00       0.00       2.41      11.02       0.13      11.15        0.30    20.47   0.748
  711                       14.91       0.00       0.00       2.41      11.02       0.13      11.15        0.26    17.40   0.748
  712                       14.91       0.00       0.00       2.41      11.02       0.13      11.15        0.75    50.77   0.748
  713                       14.91       0.00       0.00       2.41      11.02       0.13      11.15        0.30    20.47   0.748
  714                       14.91       0.00       0.00       2.41      11.02       0.13      11.15        0.30    20.47   0.748
  715                       14.91       0.00       0.00       2.41      11.02       0.13      11.15        0.30    20.47   0.748
  716                       14.91       0.00       0.00       2.41      11.02       0.13      11.15        0.30    20.47   0.748
  717                       14.91       0.00       0.00       2.41      11.02       0.13      11.15        0.30    20.47   0.748
  718                       14.91       0.00       0.00       2.41      11.02       0.13      11.15        0.45    30.71   0.748
  719                       14.91       0.00       0.00       2.41      11.02       0.13      11.15        0.45    30.71   0.748
  720                       14.91       0.00       0.00       2.41      11.02       0.13      11.15        0.45    30.71   0.748
  721                       14.91       0.00       0.00       2.41      11.02       0.13      11.15        0.45    30.71   0.748
  722                       14.91       0.00       0.00       2.41      11.02       0.13      11.15        0.45    30.71   0.748
  723                       14.91       0.00       0.00       2.41      11.02       0.13      11.15        0.45    30.71   0.748
  724                       14.91       0.00       0.00       2.41      11.02       0.13      11.15        0.45    30.71   0.748
  725                       14.91       0.00       0.00       2.41      11.02       0.13      11.15        0.45    30.71   0.748
  726                       14.91       0.00       0.00       2.41      11.02       0.13      11.15        0.45    30.71   0.748
  727                       14.91       0.00       0.00       2.41      11.02       0.13      11.15        0.45    30.71   0.748
  728                       14.91       0.00       0.00       2.41      11.02       0.13      11.15        0.45    30.71   0.748
  729                       14.91       0.00       0.00       2.41      11.02       0.13      11.15        0.45    30.71   0.748
  730                       14.91       0.00       0.00       2.41      11.02       0.13      11.15        0.45    30.71   0.748
  731                       14.91       0.00       0.00       2.41      11.02       0.13      11.15        0.45    30.71   0.748
  732                       14.91       0.00       0.00       2.41      11.02       0.13      11.15        0.45    30.71   0.748
  733                       14.91       0.00       0.00       2.41      11.02       0.13      11.15        0.45    30.71   0.748
  734                       14.91       0.00       0.00       2.41      11.02       0.13      11.15        0.45    30.71   0.748
  735                       14.91       0.00       0.00       2.41      11.02       0.13      11.15        0.45    30.71   0.748
  736                       14.91       0.00       0.00       2.41      11.02       0.13      11.15        0.45    30.71   0.748
  737                       14.91       0.00       0.00       2.41      11.02       0.13      11.15        0.45    30.71   0.748
  738                       14.91       0.00       0.00       2.41      11.02       0.13      11.15        0.45    30.71   0.748
  739                       14.91       0.00       0.00       2.41      11.02       0.13      11.15        0.45    30.71   0.748
  740                       14.91       0.00       0.00       2.41      11.02       0.13      11.15        0.45    30.71   0.748
  741                       14.91       0.00       0.00       2.41      11.02       0.13      11.15        0.45    30.71   0.748
  742                       14.91       0.00       0.00       2.41      11.02       0.13      11.15        0.45    30.71   0.748
  743                       14.91       0.00       0.00       2.41      11.02       0.13      11.15        0.45    30.71   0.748
  744                       14.91       0.00       0.00       2.41      11.02       0.13      11.15        0.30    20.47   0.748
  745                       14.91       0.00       0.00       0.00      11.02       1.36      12.38        0.50    34.18   0.830
  746                       14.91       0.00       0.00       0.00      11.02       1.36      12.38        0.50    34.18   0.830
  747                       14.91       0.00       0.00       0.00      11.02       1.36      12.38        0.67    45.57   0.830
  
  
  ******************
  Node Depth Summary
  ******************
  
  ---------------------------------------------------------------------------------
                                 Average  Maximum  Maximum  Time of Max    Reported
                                   Depth    Depth      HGL   Occurrence   Max Depth
  Node                 Type         Feet     Feet     Feet  days hr:min        Feet
  ---------------------------------------------------------------------------------
  1                    JUNCTION   138.03   325.74   342.59     0  02:23      325.74
  2                    JUNCTION   134.37   314.45   329.68     0  02:19      314.45
  3                    JUNCTION   102.76   212.15   228.65     0  02:18      212.15
  4                    JUNCTION    86.83   208.05   224.22     0  05:16      208.05
  5                    JUNCTION    86.49   207.99   224.10     0  05:18      207.99
  6                    JUNCTION    90.31   208.72   224.52     0  05:13      208.72
  7                    JUNCTION    90.37   209.35   224.89     0  05:03      209.35
  8                    JUNCTION   111.92   233.61   248.20     0  02:21      233.61
  9                    JUNCTION   117.63   256.87   271.55     0  01:47      256.84
  10                   JUNCTION   104.21   228.30   245.15     0  02:17      228.30
  11                   JUNCTION    64.64   179.19   195.81     0  01:45      179.17
  12                   JUNCTION   230.32   560.22   577.07     0  02:19      560.21
  13                   JUNCTION    77.43   236.29   252.86     0  01:47      236.29
  14                   JUNCTION    58.72   130.17   146.54     0  02:31      130.17
  15                   JUNCTION    66.61   170.45   186.49     0  01:38      170.45
  16                   JUNCTION    58.04   133.26   149.14     0  06:00      133.26
  17                   JUNCTION    59.71   138.52   154.26     0  06:00      138.52
  18                   JUNCTION    70.55   151.39   166.83     0  06:00      151.39
  19                   JUNCTION    81.97   182.41   197.56     0  04:22      182.41
  20                   JUNCTION    96.52   209.23   224.13     0  03:29      209.23
  21                   JUNCTION    96.10   250.24   267.09     0  02:04      250.24
  22                   JUNCTION    32.37   117.34   133.90     0  06:00      117.34
  23                   JUNCTION    47.92   174.39   191.24     0  06:00      174.39
  24                   JUNCTION    34.07   117.74   134.30     0  06:00      117.74
  25                   JUNCTION   132.27   303.68   320.53     0  02:19      303.68
  26                   JUNCTION   159.28   397.50   414.01     0  02:19      397.48
  27                   JUNCTION   134.49   295.62   312.00     0  02:17      295.61
  28                   JUNCTION    63.35   149.30   165.63     0  06:00      149.30
  29                   JUNCTION   114.22   288.17   304.00     0  01:51      288.15
  30                   JUNCTION    94.96   224.78   240.26     0  03:58      224.78
  31                   JUNCTION   165.17   439.05   455.17     0  01:52      439.05
  32                   JUNCTION   103.82   230.73   246.52     0  04:13      230.73
  33                   JUNCTION    92.31   208.79   224.38     0  04:41      208.79
  34                   JUNCTION    84.70   206.06   221.18     0  04:33      206.06
  35                   JUNCTION    85.13   206.22   221.20     0  04:33      206.22
  36                   JUNCTION    55.66   140.35   156.74     0  05:56      140.35
  37                   JUNCTION   104.64   229.91   244.66     0  02:48      229.91
  38                   JUNCTION   121.84   295.52   309.38     0  01:59      295.52
  39                   JUNCTION   120.16   287.76   301.93     0  02:00      287.76
  40                   JUNCTION   116.49   272.09   286.36     0  02:16      272.08
  41                   JUNCTION    92.67   210.45   225.18     0  04:01      210.45
  42                   JUNCTION    15.09    60.07    76.71     0  06:00       60.07
  43                   JUNCTION   215.98   608.91   625.26     0  01:59      608.91
  44                   JUNCTION    92.53   225.00   240.19     0  03:57      225.00
  45                   JUNCTION    98.92   224.62   238.61     0  03:56      224.62
  46                   JUNCTION   106.41   227.69   242.10     0  04:00      227.69
  47                   JUNCTION    99.37   226.83   240.61     0  03:41      226.83
  48                   JUNCTION   104.02   237.19   250.77     0  03:08      237.19
  49                   JUNCTION    33.63   104.97   121.17     0  06:00      104.97
  50                   JUNCTION   115.50   321.51   337.84     0  01:50      321.50
  51                   JUNCTION   155.20   557.04   573.20     0  01:48      557.01
  52                   JUNCTION    74.90   192.02   207.95     0  02:31      192.02
  53                   JUNCTION    69.23   249.49   264.79     0  01:33      249.41
  54                   JUNCTION    71.34   151.04   167.24     0  05:00      151.04
  55                   JUNCTION    36.36   115.99   132.60     0  06:00      115.99
  56                   JUNCTION   239.51   842.14   858.94     0  01:48      842.13
  57                   JUNCTION   118.00   274.49   287.43     0  02:18      274.48
  58                   JUNCTION   113.75   255.45   268.56     0  02:30      255.45
  59                   JUNCTION   107.05   242.38   255.66     0  02:55      242.38
  60                   JUNCTION   122.82   300.16   313.95     0  01:58      300.16
  61                   JUNCTION   120.74   288.94   302.66     0  02:16      288.93
  62                   JUNCTION   118.35   276.89   290.53     0  02:19      276.88
  63                   JUNCTION   116.50   267.71   280.98     0  02:22      267.71
  64                   JUNCTION   115.94   265.36   278.57     0  02:23      265.36
  65                   JUNCTION   114.33   262.22   275.31     0  02:27      262.22
  66                   JUNCTION   115.17   263.76   276.91     0  02:26      263.76
  67                   JUNCTION   113.57   261.09   274.11     0  02:28      261.09
  68                   JUNCTION   112.42   258.79   271.75     0  02:30      258.78
  69                   JUNCTION   111.46   257.02   269.92     0  02:31      257.01
  70                   JUNCTION   110.69   255.01   267.86     0  02:31      255.01
  71                   JUNCTION   109.85   252.14   264.92     0  02:32      252.14
  72                   JUNCTION   105.90   237.26   250.80     0  01:48      237.26
  73                   JUNCTION    85.18   190.33   204.33     0  01:47      190.32
  74                   JUNCTION    66.32   142.27   156.53     0  02:52      142.27
  75                   JUNCTION    61.28   132.11   146.51     0  06:00      132.11
  76                   JUNCTION    57.95   125.98   140.63     0  02:36      125.98
  77                   JUNCTION    58.35   125.35   140.13     0  02:32      125.34
  78                   JUNCTION    58.35   125.57   140.48     0  02:27      125.57
  79                   JUNCTION    58.37   128.23   143.27     0  02:09      128.23
  80                   JUNCTION    60.93   153.00   168.16     0  01:52      152.99
  81                   JUNCTION    23.45    86.29   102.90     0  06:00       86.29
  82                   JUNCTION    42.63   119.52   135.91     0  06:00      119.52
  83                   JUNCTION   100.22   234.16   250.31     0  01:57      234.15
  84                   JUNCTION   114.06   243.91   259.79     0  03:30      243.91
  85                   JUNCTION   108.94   265.53   281.20     0  03:20      265.53
  86                   JUNCTION   154.33   493.87   509.27     0  01:47      493.85
  87                   JUNCTION   119.75   320.07   335.17     0  01:57      320.07
  88                   JUNCTION    91.21   214.50   229.27     0  02:46      214.50
  89                   JUNCTION   170.32   487.68   504.13     0  01:50      487.65
  90                   JUNCTION   148.07   374.22   390.43     0  02:22      374.22
  91                   JUNCTION   139.76   340.28   356.38     0  02:24      340.28
  92                   JUNCTION   111.89   266.69   282.33     0  01:46      266.66
  93                   JUNCTION   109.30   241.95   255.15     0  02:19      241.95
  94                   JUNCTION   109.07   249.88   262.60     0  02:31      249.87
  95                   JUNCTION   146.49   473.62   489.68     0  01:45      473.57
  96                   JUNCTION   137.54   419.60   435.52     0  01:51      419.60
  97                   JUNCTION    86.01   208.23   224.73     0  03:38      208.23
  98                   JUNCTION    97.41   215.10   231.01     0  02:45      215.10
  99                   JUNCTION   103.39   221.02   237.27     0  02:42      221.02
  100                  JUNCTION    35.10   139.63   155.86     0  01:38      139.62
  101                  JUNCTION    22.59    50.03    66.53     0  06:00       50.03
  102                  JUNCTION   130.88   287.52   303.75     0  02:56      287.52
  103                  JUNCTION   141.67   318.01   334.38     0  02:29      318.01
  104                  JUNCTION    47.37   111.13   127.41     0  04:41      111.13
  105                  JUNCTION    51.94   124.36   140.86     0  04:08      124.36
  106                  JUNCTION    83.94   184.10   200.39     0  02:16      184.10
  107                  JUNCTION    43.34   129.62   146.12     0  06:00      129.62
  108                  JUNCTION    50.56   135.97   152.57     0  06:00      135.97
  109                  JUNCTION   145.85   441.90   458.07     0  01:56      441.89
  110                  JUNCTION    27.87    83.07    99.63     0  06:00       83.07
  111                  JUNCTION   146.52   364.65   380.44     0  02:24      364.64
  112                  JUNCTION   194.01   637.67   653.11     0  01:49      637.63
  113                  JUNCTION    43.01   100.20   116.02     0  06:00      100.20
  114                  JUNCTION    39.59    99.07   114.69     0  06:00       99.07
  115                  JUNCTION   106.38   220.67   236.56     0  06:00      220.67
  116                  JUNCTION    17.08    50.74    67.36     0  06:00       50.74
  117                  JUNCTION    21.67    52.33    68.08     0  06:00       52.33
  118                  JUNCTION    24.03    78.14    94.75     0  06:00       78.14
  119                  JUNCTION    90.82   202.09   217.63     0  02:48      202.09
  120                  JUNCTION   102.49   232.87   245.31     0  02:30      232.87
  121                  JUNCTION   104.17   237.91   250.38     0  02:28      237.90
  122                  JUNCTION   105.92   241.66   254.19     0  02:26      241.66
  123                  JUNCTION   108.31   241.68   254.84     0  02:21      241.68
  124                  JUNCTION   120.80   275.43   288.17     0  02:16      275.42
  125                  JUNCTION    73.50   176.84   192.49     0  04:02      176.83
  126                  JUNCTION    80.04   194.47   209.92     0  03:25      194.47
  127                  JUNCTION    95.69   241.50   256.86     0  02:34      241.50
  128                  JUNCTION   180.54   775.99   791.05     0  01:38      775.93
  129                  JUNCTION   148.70   496.41   511.27     0  01:57      496.40
  130                  JUNCTION   111.41   300.10   314.80     0  02:20      300.09
  131                  JUNCTION    82.20   190.00   204.56     0  03:11      190.00
  132                  JUNCTION    81.13   174.10   188.50     0  03:20      174.10
  133                  JUNCTION    80.83   174.49   188.47     0  03:19      174.49
  134                  JUNCTION    79.88   166.87   180.75     0  03:33      166.87
  135                  JUNCTION    79.54   164.71   178.48     0  03:42      164.71
  136                  JUNCTION    79.57   164.71   178.37     0  03:43      164.71
  137                  JUNCTION    82.57   166.91   180.48     0  02:21      166.91
  138                  JUNCTION    85.72   177.54   191.00     0  02:17      177.53
  139                  JUNCTION    88.85   188.23   201.58     0  02:20      188.22
  140                  JUNCTION    94.35   207.55   219.80     0  02:35      207.55
  141                  JUNCTION    92.85   203.79   215.99     0  02:37      203.79
  142                  JUNCTION    77.47   184.26   200.15     0  01:59      184.26
  143                  JUNCTION    27.07    64.83    79.96     0  06:00       64.83
  144                  JUNCTION     1.79     5.95    22.08     0  06:00        5.95
  145                  JUNCTION    93.84   210.24   225.63     0  01:53      210.24
  146                  JUNCTION    44.87    98.19   113.16     0  06:00       98.19
  147                  JUNCTION    43.18   124.95   141.05     0  01:42      124.94
  148                  JUNCTION    83.09   204.09   219.03     0  03:22      204.09
  149                  JUNCTION    23.63    77.27    93.36     0  06:00       77.27
  150                  JUNCTION    95.55   266.03   281.83     0  01:59      266.02
  151                  JUNCTION    54.47   135.31   150.83     0  05:35      135.31
  152                  JUNCTION   128.97   401.80   417.45     0  01:48      401.77
  153                  JUNCTION    46.86   122.94   139.01     0  06:00      122.94
  154                  JUNCTION    21.70    69.96    85.68     0  06:00       69.96
  155                  JUNCTION    33.12    89.51   105.30     0  06:00       89.51
  156                  JUNCTION   114.11   289.19   305.46     0  02:04      289.19
  157                  JUNCTION    12.64    47.72    64.34     0  06:00       47.72
  158                  JUNCTION     6.78    26.19    42.69     0  06:00       26.19
  159                  JUNCTION   123.03   285.06   301.43     0  02:52      285.06
  160                  JUNCTION   135.38   320.89   337.06     0  01:49      320.88
  161                  JUNCTION   120.67   275.65   288.16     0  02:16      275.64
  162                  JUNCTION   119.98   274.95   287.35     0  02:16      274.94
  163                  JUNCTION   119.75   274.46   286.78     0  02:16      274.45
  164                  JUNCTION   119.29   273.14   285.38     0  02:16      273.13
  165                  JUNCTION   118.52   270.65   282.81     0  02:16      270.65
  166                  JUNCTION   116.57   265.75   277.83     0  02:18      265.74
  167                  JUNCTION   115.29   261.01   273.01     0  02:19      261.01
  168                  JUNCTION   112.61   253.88   265.80     0  02:23      253.88
  169                  JUNCTION   110.06   247.03   258.87     0  02:29      247.03
  170                  JUNCTION   107.06   240.41   252.17     0  02:36      240.41
  171                  JUNCTION   104.84   234.23   245.91     0  02:40      234.23
  172                  JUNCTION   102.30   227.83   239.43     0  02:43      227.83
  173                  JUNCTION   100.06   221.53   233.04     0  02:45      221.52
  174                  JUNCTION    97.42   214.96   226.40     0  02:45      214.96
  175                  JUNCTION    94.96   208.41   219.77     0  02:43      208.41
  176                  JUNCTION    92.19   201.70   212.98     0  02:39      201.70
  177                  JUNCTION    88.63   194.91   205.81     0  02:36      194.91
  178                  JUNCTION   127.40   312.75   328.00     0  02:16      312.75
  179                  JUNCTION    72.91   267.16   281.72     0  01:47      267.13
  180                  JUNCTION     2.56     8.17    23.64     0  06:00        8.17
  181                  JUNCTION    88.06   211.00   225.96     0  01:48      210.98
  182                  JUNCTION    87.10   253.86   268.26     0  01:49      253.85
  183                  JUNCTION   103.78   266.53   283.38     0  02:19      266.53
  184                  JUNCTION    73.86   178.75   193.26     0  02:44      178.74
  185                  JUNCTION   126.39   328.25   345.10     0  02:16      328.25
  186                  JUNCTION    56.56   139.50   154.65     0  04:06      139.49
  187                  JUNCTION    83.56   222.47   236.67     0  02:17      222.47
  188                  JUNCTION    92.44   240.64   255.04     0  02:16      240.64
  189                  JUNCTION   108.65   303.72   318.36     0  01:54      303.71
  190                  JUNCTION   103.03   277.76   292.94     0  02:16      277.75
  191                  JUNCTION    31.59    85.25   100.74     0  06:00       85.25
  192                  JUNCTION     4.40    16.49    32.87     0  06:00       16.49
  193                  JUNCTION     8.83    31.29    47.09     0  06:00       31.29
  194                  JUNCTION    43.84   126.66   141.54     0  06:00      126.66
  195                  JUNCTION   105.97   263.03   279.88     0  02:17      263.02
  196                  JUNCTION    89.31   258.48   274.86     0  01:53      258.47
  197                  JUNCTION    49.55   132.27   148.19     0  06:00      132.27
  198                  JUNCTION    51.03   135.07   149.49     0  06:00      135.07
  199                  JUNCTION    85.88   206.79   220.86     0  01:51      206.78
  200                  JUNCTION   110.49   267.26   283.30     0  02:17      267.25
  201                  JUNCTION   116.45   269.48   285.95     0  02:16      269.47
  202                  JUNCTION   175.93   448.34   465.14     0  02:17      448.33
  203                  JUNCTION    46.66   112.94   129.47     0  01:48      112.93
  204                  JUNCTION    43.81   111.94   127.96     0  06:00      111.94
  205                  JUNCTION    65.71   153.21   167.03     0  03:26      153.21
  206                  JUNCTION   100.17   305.64   319.17     0  01:49      305.63
  207                  JUNCTION    88.18   218.44   234.78     0  02:23      218.44
  208                  JUNCTION    47.93   137.73   154.58     0  05:19      137.73
  209                  JUNCTION    72.28   214.91   228.94     0  02:08      214.90
  210                  JUNCTION   127.63   395.00   411.39     0  01:49      394.99
  211                  JUNCTION    74.02   184.48   200.22     0  03:35      184.48
  212                  JUNCTION    86.86   262.68   275.81     0  01:58      262.68
  213                  JUNCTION    69.04   239.78   252.63     0  01:51      239.78
  214                  JUNCTION    21.09    53.08    69.26     0  06:00       53.08
  215                  JUNCTION    66.64   242.03   255.52     0  01:49      242.03
  216                  JUNCTION    14.69    50.55    67.40     0  06:00       50.55
  217                  JUNCTION    61.61   257.00   270.03     0  01:43      256.99
  218                  JUNCTION    58.38   268.36   280.96     0  01:35      268.35
  219                  JUNCTION    55.35   261.18   273.66     0  01:35      261.16
  220                  JUNCTION    49.96   222.82   234.59     0  01:38      222.81
  221                  JUNCTION    43.41   186.06   197.25     0  01:36      186.03
  222                  JUNCTION    68.94   219.02   232.74     0  01:49      219.02
  223                  JUNCTION    78.37   217.85   231.89     0  01:50      217.84
  224                  JUNCTION    73.10   187.39   201.74     0  02:34      187.39
  225                  JUNCTION     4.40    13.57    28.40     0  06:00       13.57
  226                  JUNCTION     8.78    22.69    36.99     0  05:24       22.69
  227                  JUNCTION    17.16    40.46    54.23     0  03:27       40.46
  228                  JUNCTION    40.87   170.24   181.37     0  01:37      170.21
  229                  JUNCTION    36.39    86.46   100.47     0  03:57       86.46
  230                  JUNCTION    36.76    88.24   101.77     0  03:43       88.24
  231                  JUNCTION    56.41   183.00   196.06     0  01:51      182.99
  232                  JUNCTION    38.57   155.24   166.22     0  01:37      155.23
  233                  JUNCTION   173.36   498.83   513.43     0  01:52      498.81
  234                  JUNCTION   107.28   234.14   248.11     0  02:41      234.14
  235                  JUNCTION    55.98   128.01   141.48     0  04:23      128.01
  236                  JUNCTION    35.67   135.62   146.54     0  01:36      135.60
  237                  JUNCTION    73.69   165.79   176.31     0  02:12      165.78
  238                  JUNCTION    60.75   144.91   155.28     0  02:12      144.91
  239                  JUNCTION    48.33   126.22   136.44     0  02:00      126.22
  240                  JUNCTION    32.72   109.31   118.87     0  01:38      109.31
  241                  JUNCTION    76.93   254.11   265.66     0  01:34      253.98
  242                  JUNCTION    74.41   214.84   231.01     0  02:04      214.83
  243                  JUNCTION    62.55   215.61   231.03     0  01:47      215.58
  244                  JUNCTION    20.16    56.21    72.86     0  06:00       56.21
  245                  JUNCTION    47.70   145.85   157.57     0  01:40      145.85
  246                  JUNCTION    59.49   125.68   137.38     0  04:03      125.68
  247                  JUNCTION    25.88    84.75   101.13     0  06:00       84.75
  248                  JUNCTION    66.92   146.90   160.38     0  03:18      146.90
  249                  JUNCTION    65.59   153.84   166.92     0  01:47      153.84
  250                  JUNCTION    61.27   155.98   167.81     0  01:49      155.98
  251                  JUNCTION    53.25   122.79   134.64     0  04:02      122.78
  252                  JUNCTION    85.82   224.13   240.50     0  01:54      224.12
  253                  JUNCTION    73.47   164.63   178.26     0  03:19      164.63
  254                  JUNCTION    52.39   122.28   134.29     0  03:58      122.28
  255                  JUNCTION   161.01   445.36   461.73     0  02:01      445.36
  256                  JUNCTION    81.27   191.55   205.46     0  03:19      191.55
  257                  JUNCTION   164.01   448.17   464.44     0  02:08      448.17
  258                  JUNCTION    72.08   166.60   178.70     0  02:19      166.59
  259                  JUNCTION    53.42   122.52   134.68     0  03:50      122.52
  260                  JUNCTION    76.19   157.66   173.98     0  03:49      157.66
  261                  JUNCTION    85.58   198.18   212.29     0  03:02      198.18
  262                  JUNCTION    39.46   119.35   136.20     0  05:49      119.35
  263                  JUNCTION    75.09   170.62   182.85     0  02:18      170.62
  264                  JUNCTION    61.66   129.63   141.95     0  03:15      129.63
  265                  JUNCTION   116.98   343.98   358.74     0  01:57      343.98
  266                  JUNCTION   119.46   364.24   378.50     0  01:45      364.23
  267                  JUNCTION    87.74   196.67   210.25     0  02:25      196.67
  268                  JUNCTION    76.94   173.90   186.27     0  02:25      173.90
  269                  JUNCTION    65.88   159.08   171.54     0  02:37      159.07
  270                  JUNCTION    78.73   224.48   237.09     0  02:15      224.47
  271                  JUNCTION    71.59   183.18   198.53     0  04:15      183.17
  272                  JUNCTION    31.76   100.02   116.29     0  06:00      100.02
  273                  JUNCTION    97.11   220.75   234.53     0  02:28      220.75
  274                  JUNCTION    45.45   108.46   121.71     0  04:11      108.46
  275                  JUNCTION    90.22   312.32   325.08     0  01:52      312.31
  276                  JUNCTION    96.33   388.11   401.02     0  01:37      388.10
  277                  JUNCTION    59.39   154.69   167.87     0  02:20      154.69
  278                  JUNCTION    39.74    93.86   107.24     0  03:28       93.86
  279                  JUNCTION   159.27   485.30   501.52     0  01:49      485.27
  280                  JUNCTION    98.65   241.00   257.02     0  03:57      240.99
  281                  JUNCTION   136.17   337.74   352.24     0  02:19      337.74
  282                  JUNCTION   118.40   331.73   347.42     0  01:54      331.73
  283                  JUNCTION    73.86   179.52   195.01     0  04:27      179.52
  284                  JUNCTION    33.53   107.51   124.04     0  06:00      107.51
  285                  JUNCTION   104.78   243.09   257.06     0  02:28      243.08
  286                  JUNCTION   112.57   260.78   274.83     0  02:19      260.77
  287                  JUNCTION   121.30   287.15   301.33     0  02:16      287.14
  288                  JUNCTION   128.61   310.57   324.88     0  02:18      310.57
  289                  JUNCTION   125.10   298.71   315.27     0  02:18      298.71
  290                  JUNCTION    30.45    68.58    82.77     0  06:00       68.58
  291                  JUNCTION    80.47   277.67   291.58     0  01:49      277.67
  292                  JUNCTION    73.11   229.14   242.82     0  01:48      229.12
  293                  JUNCTION    45.72   105.76   119.30     0  03:49      105.76
  294                  JUNCTION    17.67    53.66    68.44     0  06:00       53.66
  295                  JUNCTION    73.75   210.39   227.24     0  05:20      210.39
  296                  JUNCTION   146.18   379.41   394.08     0  02:16      379.41
  297                  JUNCTION   162.10   455.35   470.19     0  01:48      455.30
  298                  JUNCTION   168.46   377.39   394.24     0  02:46      377.38
  299                  JUNCTION    32.09    75.39    88.96     0  06:00       75.39
  300                  JUNCTION    29.55    70.50    84.27     0  06:00       70.50
  301                  JUNCTION    31.05    69.03    83.00     0  06:00       69.03
  302                  JUNCTION    40.76   131.82   146.17     0  01:45      131.82
  303                  JUNCTION    49.81   144.31   160.66     0  06:00      144.31
  304                  JUNCTION   168.01   469.90   485.56     0  02:02      469.89
  305                  JUNCTION    61.20   180.02   196.10     0  01:55      180.01
  306                  JUNCTION    18.06    53.49    68.76     0  06:00       53.49
  307                  JUNCTION   181.06   535.35   552.02     0  01:53      535.33
  308                  JUNCTION   118.83   255.49   271.42     0  02:47      255.48
  309                  JUNCTION     5.87    23.88    40.73     0  06:00       23.88
  310                  JUNCTION   126.39   284.04   300.71     0  02:57      284.04
  311                  JUNCTION   137.62   319.20   336.00     0  02:24      319.20
  312                  JUNCTION    29.65   111.59   128.44     0  06:00      111.59
  313                  JUNCTION    89.64   205.60   222.45     0  02:21      205.60
  314                  JUNCTION    85.80   237.17   253.97     0  01:56      237.16
  315                  JUNCTION    72.91   200.64   217.44     0  01:55      200.64
  316                  JUNCTION   152.82   366.96   383.63     0  02:03      366.96
  317                  JUNCTION   187.06   464.94   481.74     0  02:17      464.93
  318                  JUNCTION    18.42    49.62    66.47     0  06:00       49.62
  319                  JUNCTION    24.26    58.77    75.62     0  02:53       58.76
  320                  JUNCTION   151.54   366.34   383.19     0  02:18      366.34
  321                  JUNCTION   117.97   322.30   338.97     0  01:51      322.30
  322                  JUNCTION   139.04   358.82   375.62     0  02:04      358.82
  323                  JUNCTION    74.04   200.46   217.31     0  05:06      200.46
  324                  JUNCTION   171.13   433.94   450.74     0  02:21      433.93
  325                  JUNCTION   111.35   249.51   266.31     0  02:31      249.51
  326                  JUNCTION   109.38   247.55   264.35     0  02:44      247.55
  327                  JUNCTION   119.59   298.06   314.73     0  01:55      298.06
  328                  JUNCTION   112.89   257.38   274.05     0  02:22      257.37
  329                  JUNCTION    62.75   189.65   206.50     0  05:44      189.65
  330                  JUNCTION   149.93   448.92   465.59     0  01:52      448.92
  331                  JUNCTION    63.79   191.16   208.01     0  05:42      191.16
  332                  JUNCTION   113.18   257.92   274.72     0  02:43      257.92
  333                  JUNCTION    64.66   192.27   209.12     0  05:41      192.26
  334                  JUNCTION    64.91   192.69   209.54     0  05:41      192.69
  335                  JUNCTION   112.51   259.11   275.91     0  02:55      259.11
  336                  JUNCTION   135.96   315.29   332.14     0  02:24      315.28
  337                  JUNCTION   290.39  1116.01  1132.68     0  01:47     1115.86
  338                  JUNCTION    50.08   181.14   197.99     0  06:00      181.14
  339                  JUNCTION   114.56   266.66   283.51     0  02:17      266.66
  340                  JUNCTION   122.33   285.95   302.80     0  02:19      285.94
  341                  JUNCTION    44.64   156.26   173.11     0  06:00      156.26
  342                  JUNCTION    40.94   150.74   167.59     0  06:00      150.74
  343                  JUNCTION    32.24   113.71   130.56     0  06:00      113.71
  344                  JUNCTION    14.73    46.49    63.34     0  06:00       46.49
  345                  JUNCTION    15.61    51.29    68.14     0  06:00       51.29
  346                  JUNCTION    22.91    80.05    96.90     0  06:00       80.05
  348                  JUNCTION    25.04    66.24    83.09     0  03:33       66.23
  349                  JUNCTION    38.58   125.22   142.07     0  05:57      125.22
  350                  JUNCTION     3.92    15.59    32.44     0  06:00       15.59
  z_0512_001_001       JUNCTION    47.45   125.43   142.28     0  06:00      125.43
  z_0512_001_002       JUNCTION    82.11   250.91   267.76     0  05:53      250.91
  z_0512_001_003       JUNCTION    36.92   110.09   126.94     0  05:30      110.09
  z_0512_001_004       JUNCTION    59.48   160.07   176.92     0  05:30      160.07
  z_0512_001_005       JUNCTION    37.02   131.33   148.18     0  06:00      131.33
  z_0512_001_006       JUNCTION    22.11    78.67    95.52     0  06:00       78.67
  z_0512_001_007       JUNCTION    84.17   234.84   251.69     0  05:18      234.84
  z_0512_001_008       JUNCTION    88.27   246.27   263.12     0  04:46      246.26
  z_0512_001_009       JUNCTION    14.16    58.22    75.07     0  06:00       58.22
  z_0512_001_010       JUNCTION    34.00    98.35   115.20     0  06:00       98.35
  z_0512_001_011       JUNCTION    25.66    75.32    92.17     0  06:00       75.32
  z_0512_001_012       JUNCTION    82.08   219.69   236.54     0  06:00      219.69
  z_0512_001_013       JUNCTION    15.04    50.10    66.95     0  06:00       50.10
  z_0512_001_014       JUNCTION     1.35     5.04    21.89     0  06:00        5.04
  z_0512_001_015       JUNCTION    20.17    73.02    89.87     0  06:00       73.02
  z_0512_001_016       JUNCTION    70.08   189.23   206.08     0  04:29      189.23
  z_0512_001_017       JUNCTION    65.59   185.31   202.16     0  05:02      185.31
  z_0512_001_018       JUNCTION    47.45   125.43   142.28     0  06:00      125.43
  z_0512_001_019       JUNCTION    41.22   136.81   153.66     0  06:00      136.81
  z_0512_001_020       JUNCTION    52.87   126.87   143.72     0  03:34      126.87
  z_0512_001_021       JUNCTION    40.38   133.57   150.42     0  06:00      133.57
  z_0512_001_022       JUNCTION    39.20   130.99   147.84     0  06:00      130.99
  z_0512_001_023       JUNCTION    75.33   209.01   225.86     0  05:10      209.00
  z_0512_001_024       JUNCTION    87.72   252.33   269.18     0  05:28      252.33
  z_0512_001_025       JUNCTION    60.77   170.64   187.49     0  05:01      170.64
  z_0512_001_026       JUNCTION    54.35   139.48   156.33     0  06:00      139.48
  z_0512_001_027       JUNCTION    22.00    63.08    79.93     0  06:00       63.08
  z_0512_001_028       JUNCTION     1.38     5.17    22.02     0  06:00        5.17
  z_0512_001_029       JUNCTION    63.34   177.77   194.62     0  06:00      177.77
  z_0512_001_030       JUNCTION    32.95    79.43    96.28     0  06:00       79.43
  z_0512_001_031       JUNCTION    19.22    72.89    89.74     0  06:00       72.89
  z_0512_001_032       JUNCTION    39.77   133.00   149.85     0  06:00      133.00
  z_0512_001_033       JUNCTION    39.77   133.00   149.85     0  06:00      133.00
  z_0512_001_034       JUNCTION    25.02    99.79   116.64     0  06:00       99.79
  z_0512_001_035       JUNCTION    35.60   118.54   135.39     0  06:00      118.54
  z_0512_001_036       JUNCTION     3.73    14.85    31.70     0  06:00       14.85
  z_0512_001_037       JUNCTION    54.50   166.39   183.24     0  06:00      166.39
  z_0512_001_038       JUNCTION    11.07    44.34    61.19     0  06:00       44.34
  z_0512_001_039       JUNCTION    24.18    90.91   107.76     0  06:00       90.91
  z_0512_001_040       JUNCTION     6.07    24.55    41.40     0  06:00       24.55
  z_0512_001_041       JUNCTION    23.28    63.12    79.97     0  06:00       63.12
  z_0512_001_042       JUNCTION    37.70   134.34   151.19     0  06:00      134.34
  z_0512_001_043       JUNCTION    18.21    63.28    80.13     0  06:00       63.28
  z_0512_001_044       JUNCTION    69.45   179.37   196.22     0  04:38      179.36
  z_0512_001_045       JUNCTION    19.19    67.77    84.62     0  06:00       67.77
  z_0512_001_046       JUNCTION    61.03   166.27   183.12     0  05:06      166.27
  z_0512_001_047       JUNCTION    23.01    77.25    94.10     0  06:00       77.25
  z_0512_001_048       JUNCTION    50.50   151.88   168.73     0  06:00      151.88
  z_0512_001_049       JUNCTION    32.10    91.23   108.08     0  05:16       91.23
  z_0512_001_050       JUNCTION    39.51   134.29   151.14     0  06:00      134.29
  z_0512_001_051       JUNCTION    44.97   114.32   131.17     0  04:14      114.32
  z_0512_001_052       JUNCTION    39.72   133.37   150.22     0  06:00      133.37
  z_0512_001_053       JUNCTION    43.19   111.79   128.64     0  04:29      111.79
  z_0512_001_054       JUNCTION    39.08   133.20   150.05     0  06:00      133.20
  z_0512_001_055       JUNCTION    39.68   107.19   124.04     0  04:59      107.19
  z_0512_001_056       JUNCTION    39.01   132.08   148.93     0  06:00      132.08
  z_0512_001_057       JUNCTION    34.77   103.46   120.31     0  05:52      103.46
  z_0512_001_058       JUNCTION    38.88   131.65   148.50     0  06:00      131.65
  z_0512_001_059       JUNCTION    33.29   102.44   119.29     0  06:00      102.44
  z_0512_001_060       JUNCTION    38.81   131.60   148.45     0  06:00      131.60
  z_0512_001_061       JUNCTION    23.33    97.93   114.78     0  06:00       97.93
  z_0512_001_062       JUNCTION    28.41    97.84   114.69     0  06:00       97.84
  z_0512_001_063       JUNCTION    40.28   133.74   150.59     0  06:00      133.74
  z_0512_001_064       JUNCTION    27.49    97.31   114.16     0  06:00       97.31
  z_0512_001_065       JUNCTION    41.49   136.35   153.20     0  06:00      136.35
  z_0512_001_066       JUNCTION    27.80    98.59   115.44     0  06:00       98.59
  z_0512_001_067       JUNCTION    42.36   139.69   156.54     0  06:00      139.69
  z_0512_001_068       JUNCTION    31.22   104.20   121.05     0  06:00      104.20
  z_0512_001_069       JUNCTION    43.43   144.72   161.57     0  06:00      144.72
  z_0512_001_070       JUNCTION    39.18   114.54   131.39     0  06:00      114.54
  z_0512_001_071       JUNCTION    79.19   213.69   230.54     0  04:54      213.69
  z_0512_001_072       JUNCTION    47.32   126.39   143.24     0  03:16      126.38
  z_0512_001_073       JUNCTION     1.77     6.72    23.57     0  06:00        6.72
  z_0512_001_074       JUNCTION    59.63   154.02   170.87     0  04:40      154.02
  z_0512_001_075       JUNCTION    56.93   146.37   163.22     0  03:50      146.36
  z_0512_001_076       JUNCTION    26.88    76.91    93.76     0  06:00       76.91
  z_0512_001_077       JUNCTION    50.45   145.92   162.77     0  04:51      145.92
  z_0512_001_078       JUNCTION    14.87    60.74    77.59     0  06:00       60.74
  z_0512_001_079       JUNCTION    40.77   126.85   143.70     0  05:14      126.85
  z_0512_001_080       JUNCTION    49.91   130.60   147.45     0  06:00      130.60
  z_0512_001_081       JUNCTION     6.60    26.59    43.44     0  06:00       26.59
  z_0512_001_082       JUNCTION    19.75    72.96    89.81     0  06:00       72.96
  z_0512_001_083       JUNCTION    75.08   209.29   226.14     0  05:40      209.29
  z_0512_001_084       JUNCTION    62.86   167.31   184.16     0  04:31      167.30
  z_0512_001_085       JUNCTION    48.91   137.02   153.87     0  05:15      137.01
  z_0512_001_086       JUNCTION    70.38   207.69   224.54     0  06:00      207.69
  z_0512_001_087       JUNCTION    34.37    95.44   112.29     0  06:00       95.44
  z_0512_001_088       JUNCTION    79.74   201.42   218.27     0  03:55      201.42
  z_0512_001_089       JUNCTION    45.16   121.84   138.69     0  04:08      121.84
  z_0512_001_090       JUNCTION    16.11    52.13    68.98     0  06:00       52.13
  z_0512_001_091       JUNCTION    46.85   145.09   161.94     0  06:00      145.09
  z_0512_001_092       JUNCTION    64.22   177.41   194.26     0  05:38      177.41
  z_0512_001_093       JUNCTION    39.90   113.39   130.24     0  03:09      113.38
  z_0512_001_094       JUNCTION    49.94   136.41   153.26     0  04:25      136.40
  z_0512_001_095       JUNCTION     3.14    11.47    28.32     0  06:00       11.47
  z_0512_001_096       JUNCTION    27.69    81.09    97.94     0  04:56       81.09
  z_0512_001_097       JUNCTION   104.57   269.90   286.75     0  04:19      269.89
  z_0512_001_098       JUNCTION    40.73   129.11   145.96     0  06:00      129.11
  z_0512_001_099       JUNCTION    48.97   132.24   149.09     0  04:30      132.24
  z_0512_001_100       JUNCTION    39.22   107.06   123.91     0  04:40      107.06
  z_0512_001_101       JUNCTION    17.84    56.00    72.85     0  06:00       56.00
  z_0512_001_102       JUNCTION    44.75   115.81   132.66     0  04:28      115.81
  z_0512_001_103       JUNCTION    17.74    70.89    87.74     0  06:00       70.89
  z_0512_001_104       JUNCTION    48.43   137.51   154.36     0  05:40      137.51
  z_0512_001_105       JUNCTION    41.60   124.49   141.34     0  06:00      124.49
  z_0512_001_106       JUNCTION    73.56   212.59   229.44     0  05:28      212.58
  z_0512_001_107       JUNCTION    68.65   205.13   221.98     0  05:43      205.13
  z_0512_001_108       JUNCTION    43.69   141.35   158.20     0  06:00      141.35
  z_0512_001_109       JUNCTION    42.56   141.38   158.23     0  06:00      141.38
  z_0512_001_110       JUNCTION    55.23   159.23   176.08     0  05:55      159.23
  z_0512_001_111       JUNCTION    44.29   140.46   157.31     0  06:00      140.46
  z_0512_001_112       JUNCTION    35.20   134.59   151.44     0  06:00      134.59
  z_0512_001_113       JUNCTION    19.67    78.23    95.08     0  06:00       78.23
  z_0512_001_114       JUNCTION    24.47    94.58   111.43     0  06:00       94.58
  z_0512_001_115       JUNCTION    25.60    92.12   108.97     0  06:00       92.12
  z_0512_001_116       JUNCTION    68.05   200.82   217.67     0  06:00      200.82
  z_0512_001_117       JUNCTION    56.09   181.96   198.81     0  06:00      181.96
  z_0512_001_118       JUNCTION    40.70   130.29   147.14     0  06:00      130.29
  z_0512_001_119       JUNCTION    81.12   226.44   243.29     0  04:58      226.44
  z_0512_001_120       JUNCTION    58.85   181.94   198.79     0  06:00      181.94
  z_0512_001_121       JUNCTION    56.35   173.76   190.61     0  05:31      173.76
  z_0512_001_122       JUNCTION    25.17    85.45   102.30     0  06:00       85.45
  z_0512_001_123       JUNCTION    36.25    94.97   111.82     0  04:42       94.97
  z_0512_001_124       JUNCTION    37.24    96.72   113.57     0  04:25       96.72
  z_0512_001_125       JUNCTION    18.37    62.30    79.15     0  06:00       62.30
  z_0512_001_126       JUNCTION    10.90    42.77    59.62     0  06:00       42.77
  z_0512_001_127       JUNCTION    62.72   197.36   214.21     0  06:00      197.36
  z_0512_001_128       JUNCTION    66.34   206.89   223.74     0  05:54      206.89
  z_0512_001_129       JUNCTION    18.48    63.80    80.65     0  06:00       63.80
  z_0512_001_130       JUNCTION    51.65   169.33   186.18     0  06:00      169.33
  z_0512_001_131       JUNCTION    28.67   112.38   129.23     0  06:00      112.38
  z_0512_001_132       JUNCTION    32.08    85.70   102.55     0  04:38       85.70
  z_0512_001_133       JUNCTION    60.87   209.50   226.35     0  06:00      209.50
  z_0512_001_134       JUNCTION    90.43   243.48   260.33     0  04:45      243.48
  z_0512_001_135       JUNCTION    33.03   122.02   138.87     0  06:00      122.02
  z_0512_001_136       JUNCTION    33.03   122.02   138.87     0  06:00      122.02
  z_0512_001_137       JUNCTION    42.42   114.04   130.89     0  06:00      114.04
  z_0512_001_138       JUNCTION    44.08   128.65   145.50     0  06:00      128.65
  z_0512_001_139       JUNCTION    73.69   193.11   209.96     0  04:18      193.11
  z_0512_001_140       JUNCTION    61.33   179.75   196.60     0  06:00      179.75
  z_0512_001_141       JUNCTION    48.31   170.57   187.42     0  06:00      170.57
  z_0512_001_142       JUNCTION    12.92    54.47    71.32     0  06:00       54.47
  z_0512_001_143       JUNCTION    92.55   269.62   286.47     0  05:34      269.62
  z_0512_001_144       JUNCTION    22.40    87.92   104.77     0  06:00       87.92
  z_0512_001_145       JUNCTION    59.90   177.66   194.51     0  06:00      177.66
  z_0512_001_146       JUNCTION    38.89   110.84   127.69     0  06:00      110.84
  z_0512_001_147       JUNCTION    19.01    77.07    93.92     0  06:00       77.07
  z_0512_001_148       JUNCTION    39.19   123.59   140.44     0  06:00      123.59
  z_0512_001_149       JUNCTION    63.78   169.99   186.84     0  04:50      169.99
  z_0512_001_150       JUNCTION    28.46   105.63   122.48     0  06:00      105.63
  z_0512_001_151       JUNCTION    38.39   112.70   129.55     0  06:00      112.70
  z_0512_001_152       JUNCTION    37.01   112.07   128.92     0  06:00      112.07
  z_0512_001_153       JUNCTION    36.90   113.53   130.38     0  06:00      113.53
  z_0512_001_154       JUNCTION    37.30   122.13   138.98     0  06:00      122.13
  z_0512_001_155       JUNCTION    48.66   149.11   165.96     0  06:00      149.11
  z_0512_001_156       JUNCTION    56.79   180.51   197.36     0  06:00      180.51
  z_0512_001_157       JUNCTION    58.49   184.26   201.11     0  06:00      184.26
  z_0512_001_158       JUNCTION    59.70   186.11   202.96     0  06:00      186.11
  z_0512_001_159       JUNCTION    60.80   187.94   204.79     0  06:00      187.94
  z_0512_001_160       JUNCTION    35.30   108.44   125.29     0  06:00      108.44
  z_0512_001_161       JUNCTION    44.72   146.13   162.98     0  06:00      146.13
  z_0512_001_162       JUNCTION    34.29   107.90   124.75     0  06:00      107.90
  z_0512_001_163       JUNCTION    70.16   180.91   197.76     0  04:35      180.91
  z_0512_001_164       JUNCTION    34.90   109.41   126.26     0  06:00      109.41
  z_0512_001_165       JUNCTION    61.55   167.23   184.08     0  05:02      167.23
  z_0512_001_166       JUNCTION    35.46   111.34   128.19     0  06:00      111.34
  z_0512_001_167       JUNCTION    50.97   152.59   169.44     0  06:00      152.59
  z_0512_001_168       JUNCTION    35.42   114.07   130.92     0  06:00      114.07
  z_0512_001_169       JUNCTION    39.14   133.35   150.20     0  06:00      133.35
  z_0512_001_170       JUNCTION    54.00   187.99   204.84     0  06:00      187.99
  z_0512_001_171       JUNCTION    39.36   132.44   149.29     0  06:00      132.44
  z_0512_001_172       JUNCTION    37.71   122.87   139.72     0  06:00      122.87
  z_0512_001_173       JUNCTION    40.02   130.12   146.97     0  06:00      130.12
  z_0512_001_174       JUNCTION    87.52   242.14   258.99     0  05:11      242.13
  z_0512_001_175       JUNCTION    38.65   131.14   147.99     0  06:00      131.14
  z_0512_001_176       JUNCTION    51.67   152.65   169.50     0  06:00      152.65
  z_0512_001_177       JUNCTION    38.52   130.72   147.57     0  06:00      130.72
  z_0512_001_178       JUNCTION    37.77   128.84   145.69     0  06:00      128.84
  z_0512_001_179       JUNCTION    93.01   232.93   249.78     0  03:55      232.92
  z_0512_001_180       JUNCTION    58.23   191.03   207.88     0  05:55      191.02
  z_0512_001_181       JUNCTION    25.86    66.90    83.75     0  02:38       66.90
  347                  OUTFALL      1.73     2.00    11.39     0  00:37        2.00
  
  
  *******************
  Node Inflow Summary
  *******************
  
  -------------------------------------------------------------------------------------------------
                                  Maximum  Maximum                  Lateral       Total        Flow
                                  Lateral    Total  Time of Max      Inflow      Inflow     Balance
                                   Inflow   Inflow   Occurrence      Volume      Volume       Error
  Node                 Type           CFS      CFS  days hr:min    10^6 gal    10^6 gal     Percent
  -------------------------------------------------------------------------------------------------
  1                    JUNCTION     37.26    37.26     0  01:30       0.551       0.552      -0.079
  2                    JUNCTION     35.83    49.81     0  01:30        0.53        1.48      -0.007
  3                    JUNCTION     30.71    32.33     0  01:30       0.454       0.654      -0.053
  4                    JUNCTION      0.00     9.60     0  01:36           0       0.543       0.255
  5                    JUNCTION      0.00    11.49     0  01:31           0       0.624       0.256
  6                    JUNCTION     37.06    38.99     0  01:30       0.548       0.915       0.191
  7                    JUNCTION     24.16    32.64     0  01:30       0.357        1.35       0.211
  8                    JUNCTION      0.00    41.52     0  01:30           0        1.31      -0.008
  9                    JUNCTION     79.64    79.64     0  01:30        1.18        1.68      -0.039
  10                   JUNCTION     29.89    29.89     0  01:30       0.442       0.455      -0.133
[...]
  468                         5.83      5.83      5.84      5.75         1.03
  466                         5.81      5.81      5.84      5.71         0.01
  219                         5.88      5.88      5.88      5.66         5.67
  218                         5.85      5.85      5.88      5.70         0.65
  274                         5.75      5.75      5.75      5.05         0.01
  230                         5.83      5.85      5.83      5.69         5.66
  430                         5.68      5.68      5.75      4.38         0.01
  104                         5.71      5.71      5.77      4.71         0.01
  429                         5.86      5.86      5.89      4.35         0.01
  352                         5.85      5.85      5.86      4.89         0.01
  241                         5.86      5.86      5.86      4.78         4.78
  8                           5.87      5.87      5.88      4.32         4.32
  357                         5.88      5.88      5.89      5.78         1.22
  9                           5.90      5.90      5.91      5.69         0.01
  14                          5.83      5.83      5.88      5.67         0.01
  382                         5.82      5.82      5.82      5.56         0.01
  381                         5.82      5.82      5.82      5.56         0.01
  12                          5.87      5.90      5.87      5.84         5.81
  433                         5.84      5.84      5.85      5.71         1.47
  102                         5.90      5.90      5.90      4.81         0.82
  60                          5.89      5.89      5.89      5.71         5.71
  525                         5.77      5.77      5.79      5.67         0.01
  504                         5.77      5.77      5.79      5.65         0.01
  322                         5.83      5.83      5.83      5.61         0.01
  340                         5.90      5.90      5.90      5.79         5.79
  315                         5.84      5.84      5.84      5.31         5.30
  255                         5.79      5.79      5.79      5.27         5.26
  403                         5.78      5.78      5.82      5.56         0.01
  337                         5.86      5.86      5.87      4.95         4.97
  38                          5.88      5.92      5.88      3.86         1.01
  76                          5.82      5.83      5.82      5.65         5.66
  400                         5.75      5.75      5.78      5.62         1.75
  198                         5.87      5.87      5.88      5.83         0.01
  476                         5.82      5.82      5.85      5.74         0.01
  220                         5.87      5.87      5.88      5.76         5.77
  481                         5.80      5.80      5.85      5.43         1.32
  385                         5.65      5.65      5.70      2.95         0.01
  279                         5.67      5.67      5.67      3.06         0.01
  240                         5.87      5.87      5.87      5.78         5.76
  353                         5.88      5.88      5.88      4.98         0.01
  239                         5.88      5.88      5.89      4.28         4.08
  10                          5.88      5.88      5.90      5.78         0.01
  355                         5.82      5.82      5.83      5.17         0.01
  11                          5.88      5.88      5.90      5.79         0.01
  69                          5.89      5.89      5.89      5.16         3.18
  61                          5.87      5.87      5.89      5.86         0.01
  103                         5.89      5.89      5.90      5.79         0.01
  522                         5.77      5.77      5.78      5.58         0.01
  323                         5.83      5.83      5.83      5.35         0.01
  338                         5.90      5.91      5.90      5.92         5.90
  314                         5.84      5.84      5.84      5.34         5.33
  256                         5.78      5.78      5.79      5.64         0.25
  520                         5.79      5.79      5.83      5.56         0.01
  401                         5.79      5.79      5.83      5.57         0.01
  37                          5.92      5.92      5.92      4.30         3.24
  336                         5.86      5.90      5.86      5.91         5.85
  75                          5.83      5.83      5.83      4.82         4.74
  398                         5.73      5.73      5.76      4.58         0.01
  199                         5.86      5.86      5.87      5.72         0.01
  229                         5.86      5.86      5.87      4.23         3.49
  221                         5.85      5.87      5.85      5.22         3.26
  238                         5.87      5.87      5.88      5.44         0.01
  354                         5.87      5.87      5.88      5.55         0.01
  388                         5.81      5.81      5.85      5.27         0.01
  384                         5.84      5.84      5.84      5.49         0.01
  356                         5.87      5.87      5.87      5.75         0.68
  237                         5.87      5.87      5.88      5.15         3.86
  67                          5.88      5.88      5.89      5.61         3.09
  431                         5.82      5.82      5.85      5.13         0.01
  63                          5.88      5.88      5.89      4.70         4.70
  62                          5.86      5.86      5.88      5.61         0.01
  521                         5.77      5.77      5.78      5.56         0.01
  503                         5.77      5.77      5.78      5.55         0.01
  324                         5.83      5.83      5.83      4.80         0.80
  523                         5.89      5.89      5.91      5.75         0.80
  506                         5.78      5.78      5.79      5.69         0.01
  312                         5.84      5.84      5.84      5.26         5.25
  258                         5.79      5.85      5.79      5.82         5.74
  518                         5.80      5.80      5.84      5.57         0.01
  399                         5.80      5.80      5.84      5.57         0.01
  36                          5.92      5.93      5.92      5.93         5.91
  335                         5.90      5.93      5.90      5.93         5.90
  74                          5.83      5.83      5.83      5.51         5.52
  396                         5.71      5.71      5.75      5.18         0.01
  222                         5.85      5.85      5.86      5.39         0.01
  228                         5.83      5.83      5.86      5.79         0.01
  236                         5.87      5.87      5.88      5.16         4.23
  66                          5.80      5.80      5.86      5.11         0.01
  65                          5.82      5.82      5.87      5.26         0.01
  64                          5.88      5.91      5.88      5.86         5.82
  517                         5.77      5.77      5.78      5.54         0.01
  325                         5.83      5.84      5.83      5.13         1.55
  313                         5.84      5.84      5.84      5.27         5.26
  259                         5.78      5.78      5.79      5.65         0.26
  516                         5.83      5.83      5.86      5.69         0.01
  397                         5.83      5.83      5.86      5.69         0.01
  34                          5.93      5.93      5.93      5.94         5.91
  334                         5.91      5.91      5.93      5.75         2.28
  73                          5.83      5.83      5.83      5.15         5.16
  394                         5.70      5.70      5.73      5.11         0.01
  225                         5.84      5.84      5.85      4.15         0.01
  480                         5.81      5.81      5.83      5.43         0.01
  389                         5.78      5.78      5.79      4.15         0.01
  234                         5.78      5.78      5.80      4.10         0.01
  386                         5.87      5.87      5.89      5.73         0.01
  1                           5.89      5.89      5.89      5.37         5.37
  387                         5.81      5.81      5.82      4.77         0.01
  515                         5.76      5.76      5.78      5.53         0.01
  502                         5.77      5.77      5.78      5.56         0.01
  326                         5.84      5.84      5.84      4.49         1.06
  311                         5.84      5.84      5.84      5.25         5.24
  260                         5.79      5.80      5.79      5.09         3.29
  514                         5.84      5.84      5.87      5.68         0.92
  395                         5.84      5.84      5.87      5.65         0.84
  33                          5.92      5.92      5.93      5.44         5.43
  333                         5.91      5.91      5.91      4.85         1.69
  72                          5.83      5.83      5.83      5.03         5.04
  478                         5.70      5.70      5.72      5.11         0.01
  392                         5.70      5.70      5.72      5.11         0.01
  226                         5.82      5.82      5.84      5.03         2.31
  513                         5.76      5.76      5.78      5.52         0.01
  327                         5.84      5.84      5.84      4.81         1.05
  507                         5.78      5.78      5.80      5.70         0.01
  310                         5.84      5.84      5.84      5.15         5.16
  261                         5.79      5.79      5.80      5.66         0.29
  512                         5.85      5.85      5.88      5.77         1.40
  393                         5.85      5.85      5.88      5.76         1.35
  32                          5.90      5.90      5.92      5.84         0.01
  332                         5.90      5.90      5.91      5.04         0.92
  71                          5.82      5.82      5.83      4.93         4.96
  227                         5.80      5.80      5.82      5.21         2.43
  511                         5.76      5.76      5.78      5.51         0.01
  501                         5.77      5.77      5.78      5.56         0.01
  329                         5.84      5.84      5.84      2.06         2.05
  309                         5.84      5.84      5.84      5.46         5.42
  262                         5.79      5.79      5.80      5.66         0.30
  510                         5.84      5.84      5.87      5.63         0.01
  31                          5.90      5.90      5.90      5.74         0.01
  331                         5.89      5.89      5.90      5.80         0.01
  479                         5.76      5.76      5.79      5.67         0.01
  70                          5.82      5.82      5.82      5.17         5.18
  390                         5.70      5.70      5.73      5.25         0.01
  273                         5.60      5.60      5.73      5.15         0.01
  509                         5.76      5.76      5.79      5.53         0.01
  500                         5.77      5.77      5.79      5.57         0.01
  299                         5.84      5.84      5.84      4.29         4.26
  508                         5.78      5.78      5.80      5.70         0.01
  308                         5.84      5.85      5.84      5.47         5.44
  263                         5.80      5.80      5.80      5.17         3.07
  391                         5.84      5.84      5.87      5.57         0.01
  30                          5.88      5.88      5.90      4.69         0.01
  330                         5.88      5.88      5.89      5.62         0.01
  29                          5.82      5.83      5.82      3.59         3.10
  495                         5.77      5.77      5.79      5.59         0.01
  486                         5.77      5.77      5.79      5.64         0.01
  298                         5.84      5.89      5.84      5.36         4.01
  307                         5.85      5.85      5.85      5.37         5.36
  264                         5.80      5.88      5.80      5.64         5.56
  300                         5.86      5.86      5.88      5.16         1.48
  496                         5.87      5.87      5.88      5.11         0.01
  372                         5.78      5.78      5.78      5.73         0.81
  303                         5.83      5.83      5.83      4.77         3.20
  497                         5.79      5.79      5.84      5.58         0.01
  487                         5.80      5.80      5.84      5.03         0.01
  297                         5.89      5.92      5.89      5.92         5.89
  282                         5.85      5.85      5.85      4.15         0.01
  265                         5.80      5.92      5.80      5.93         5.80
  301                         5.85      5.85      5.86      5.73         0.01
  302                         5.85      5.94      5.85      5.95         5.85
  304                         5.83      5.83      5.83      4.15         0.80
  272                         5.71      5.71      5.79      5.52         0.01
  498                         5.87      5.87      5.90      5.72         1.15
  488                         5.88      5.88      5.90      5.76         1.69
  283                         5.85      5.85      5.85      3.76         0.19
  281                         5.85      5.85      5.85      5.67         0.05
  499                         5.84      5.85      5.85      5.35         0.01
  296                         5.79      5.87      5.79      5.34         2.15
  305                         5.83      5.83      5.83      4.49         1.04
  113                         5.85      5.85      5.85      5.60         0.05
  285                         5.84      5.84      5.85      4.76         0.01
  293                         5.83      5.84      5.83      5.04         1.78
  294                         5.78      5.78      5.79      5.79         0.01
  494                         5.84      5.84      5.87      5.72         0.01
  489                         5.84      5.84      5.87      5.72         0.01
  101                         5.85      5.85      5.85      5.68         0.02
  286                         5.83      5.83      5.84      4.98         0.01
  280                         5.81      5.85      5.81      5.74         0.01
  493                         5.75      5.75      5.77      5.20         0.01
  287                         5.75      5.75      5.77      5.40         0.01
  288                         5.79      5.90      5.79      5.91         5.79
  292                         5.84      5.85      5.84      4.65         1.01
  90                          5.85      5.87      5.85      5.19         1.08
  485                         5.79      5.79      5.83      5.49         0.01
  484                         5.79      5.79      5.83      5.49         0.01
  124                         5.82      5.88      5.82      5.84         5.77
  490                         5.79      5.79      5.80      5.65         0.01
  278                         5.82      5.82      5.83      4.43         0.01
  491                         5.74      5.74      5.75      4.85         0.01
  290                         5.85      5.85      5.85      4.04         1.60
  271                         5.76      5.76      5.79      5.61         0.01
  289                         5.82      5.88      5.82      5.19         2.01
  492                         5.89      5.89      5.90      5.76         0.42
  440                         5.82      5.82      5.83      5.65         0.01
  79                          5.86      5.86      5.87      5.48         0.01
  268                         5.82      5.82      5.82      3.45         0.79
  135                         5.79      5.79      5.80      5.68         0.01
  224                         5.88      5.90      5.88      4.76         4.25
  317                         5.82      5.82      5.82      4.92         0.70
  291                         5.85      5.85      5.85      5.62         5.61
  68                          5.86      5.86      5.86      4.61         0.87
  410                         5.78      5.78      5.79      5.30         0.01
  257                         5.82      5.90      5.82      5.73         5.64
  146                         5.79      5.79      5.80      5.64         0.01
  482                         5.85      5.85      5.86      5.69         0.01
  212                         5.90      5.91      5.90      5.91         3.14
  190                         5.88      5.88      5.88      5.82         5.80
  328                         5.85      5.85      5.85      5.54         5.53
  519                         5.79      5.79      5.80      5.68         0.01
  477                         5.79      5.79      5.80      5.56         0.01
  306                         5.82      5.83      5.82      4.23         0.83
  447                         5.83      5.83      5.84      5.60         0.01
  57                          5.86      5.87      5.86      5.31         2.98
  246                         5.90      5.90      5.90      5.28         4.61
  157                         5.81      5.81      5.87      5.69         0.01
  24                          5.88      5.92      5.88      5.91         5.87
  201                         5.89      5.89      5.91      5.67         0.01
  339                         5.85      5.85      5.85      5.81         5.80
  295                         5.83      5.84      5.83      5.36         0.03
  2                           5.81      5.87      5.81      4.84         3.44
  46                          5.86      5.86      5.87      5.21         0.97
  383                         5.80      5.80      5.81      5.30         0.01
  235                         5.90      5.92      5.90      5.92         5.90
  168                         5.88      5.89      5.88      5.78         5.78
  13                          5.89      5.89      5.89      5.22         1.78
  112                         5.85      5.89      5.85      5.67         5.11
  266                         5.80      5.80      5.82      5.65         0.01
  284                         5.84      5.85      5.84      4.55         4.44
  454                         5.84      5.84      5.85      5.63         0.01
  35                          5.86      5.87      5.86      5.22         4.36
  179                         5.91      5.91      5.92      5.18         3.17
  367                         5.88      5.88      5.89      5.68         0.01
  350                         5.88      5.88      5.89      5.68         0.01
  483                         5.84      5.84      5.84      5.75         1.25
  233                         5.85      5.85      5.89      5.28         0.01
  232                         5.84      5.87      5.84      5.84         5.80
  267                         5.84      5.88      5.84      4.90         4.84
  223                         5.85      5.91      5.85      5.91         5.84
  369                         5.86      5.86      5.87      4.75         0.98
  373                         5.90      5.90      5.91      5.75         0.52
  270                         5.81      5.81      5.85      5.65         0.01
  269                         5.90      5.90      5.91      5.73         5.73
  

  Analysis begun on:  Tue Jun 14 10:32:13 2022
  Analysis ended on:  Tue Jun 14 10:32:14 2022
  Total elapsed time: 00:00:01